Version 4
SHEET 1 1092 680
WIRE 304 -192 224 -192
WIRE 400 -192 368 -192
WIRE 224 -128 224 -192
WIRE 256 -128 224 -128
WIRE 400 -128 400 -192
WIRE 400 -128 336 -128
WIRE 560 -80 560 -96
WIRE -48 -64 -192 -64
WIRE -128 -48 -128 -80
WIRE -192 -32 -192 -64
WIRE -160 -32 -192 -32
WIRE -592 -16 -592 -32
WIRE -48 -16 -48 -64
WIRE -48 -16 -96 -16
WIRE 112 -16 -48 -16
WIRE 224 -16 224 -128
WIRE 224 -16 192 -16
WIRE 256 -16 224 -16
WIRE 688 -16 688 -48
WIRE -400 0 -416 0
WIRE -352 0 -400 0
WIRE -240 0 -272 0
WIRE -160 0 -240 0
WIRE -48 0 -48 -16
WIRE 400 0 400 -128
WIRE 400 0 320 0
WIRE 448 0 400 0
WIRE 656 0 640 0
WIRE -416 16 -416 0
WIRE -240 16 -240 0
WIRE 256 16 224 16
WIRE 448 16 448 0
WIRE 640 16 640 0
WIRE 640 16 448 16
WIRE 768 16 768 0
WIRE 768 16 720 16
WIRE 816 16 768 16
WIRE -592 32 -592 -16
WIRE 560 32 560 0
WIRE 656 32 560 32
WIRE 560 48 560 32
WIRE -128 64 -128 16
WIRE 224 64 224 16
WIRE 224 64 128 64
WIRE 288 64 288 32
WIRE 688 96 688 48
WIRE -240 112 -240 80
WIRE -416 128 -416 96
WIRE -416 128 -464 128
WIRE -320 128 -416 128
WIRE -592 160 -592 112
WIRE 560 160 560 128
WIRE 768 176 768 16
WIRE 928 176 768 176
WIRE -496 240 -496 224
WIRE -272 272 -400 272
WIRE -336 288 -336 240
WIRE -400 304 -400 272
WIRE -368 304 -400 304
WIRE -272 320 -272 272
WIRE -272 320 -304 320
WIRE -224 320 -272 320
WIRE -496 336 -496 320
WIRE -368 336 -496 336
WIRE -496 352 -496 336
WIRE -336 416 -336 352
WIRE -496 448 -496 432
FLAG -592 160 0
FLAG -592 -16 3.3V
FLAG 288 -32 3.3V
FLAG 288 64 0
FLAG -336 240 3.3V
FLAG -336 416 0
FLAG -496 448 0
FLAG -496 224 3.3V
FLAG 688 -48 3.3V
FLAG 688 96 0
FLAG 560 160 0
FLAG 560 -96 3.3V
FLAG -128 -80 3.3V
FLAG -128 64 0
FLAG -224 320 Vref
FLAG -464 128 Vref
FLAG 128 64 Vref
FLAG -240 112 0
FLAG -400 0 vin
SYMBOL voltage -592 16 R0
WINDOW 123 0 0 Left 0
WINDOW 39 0 0 Left 0
SYMATTR InstName V1
SYMATTR Value 3.3
SYMBOL res -512 224 R0
SYMATTR InstName R3
SYMATTR Value 10k
SYMBOL res -512 336 R0
SYMATTR InstName R4
SYMATTR Value 10k
SYMBOL res 544 -96 R0
SYMATTR InstName R5
SYMATTR Value 10k
SYMBOL res 544 32 R0
SYMATTR InstName R6
SYMATTR Value 8k
SYMBOL res 208 -32 R90
WINDOW 0 0 56 VBottom 2
WINDOW 3 32 56 VTop 2
SYMATTR InstName R1
SYMATTR Value 10k
SYMBOL res 352 -144 R90
WINDOW 0 0 56 VBottom 2
WINDOW 3 32 56 VTop 2
SYMATTR InstName R2
SYMATTR Value 47k
SYMBOL voltage -416 0 R0
WINDOW 123 24 124 Left 2
WINDOW 39 0 0 Left 0
WINDOW 3 33 147 Left 2
SYMATTR Value2 AC 0.1
SYMATTR InstName V2
SYMATTR Value PULSE(-0 0.4 1m 100u 100u 1m 10m 100)
SYMBOL lmv324 -336 256 R0
SYMATTR InstName U1
SYMBOL lmv324 288 -64 R0
SYMATTR InstName U2
SYMBOL lmv324 688 -48 R0
SYMATTR InstName U3
SYMBOL cap 368 -208 R90
WINDOW 0 0 32 VBottom 2
WINDOW 3 32 32 VTop 2
SYMATTR InstName C1
SYMATTR Value 22n
SYMBOL lmv324 -128 -80 R0
SYMATTR InstName U4
SYMBOL diode -256 80 M180
WINDOW 0 24 64 Left 2
WINDOW 3 24 0 Left 2
SYMATTR InstName D1
SYMATTR Value RF01VM2S
SYMBOL res -256 -16 R90
WINDOW 0 0 56 VBottom 2
WINDOW 3 32 56 VTop 2
SYMATTR InstName R7
SYMATTR Value 10k
TEXT -112 352 Left 2 !.tran 100m startup
TEXT 504 -224 Left 2 !;ac dec 100 100m 1meg
